[General]
network = Network
sim-time-limit = 200s
Network.nodeTx.gen.generationInterval = exponential(0.25)
Network.nodeTx.gen.packetByteSize=12500
Network.queue0.bufferSize=100
Network.queue1.bufferSize=200
Network.nodeRx.traRx.bufferSize=200
Network.nodeTx.traTx.bufferSize=20000000
Network.queue0.serviceTime=exponential(0.001)
Network.queue1.serviceTime=exponential(0.001)

